[TITLE]
;;Project Title/Notes

[OPTIONS]
;;Option             Value
FLOW_UNITS           CMS
INFILTRATION         CURVE_NUMBER
FLOW_ROUTING         DYNWAVE
LINK_OFFSETS         ELEVATION
MIN_SLOPE            0
ALLOW_PONDING        YES
SKIP_STEADY_STATE    NO

START_DATE           09/01/2018
START_TIME           00:00:00
REPORT_START_DATE    09/01/2018
REPORT_START_TIME    00:00:00
END_DATE             09/01/2018
END_TIME             06:00:00
SWEEP_START          01/01
SWEEP_END            12/31
DRY_DAYS             0
REPORT_STEP          00:02:00
WET_STEP             00:02:00
DRY_STEP             00:02:00
ROUTING_STEP         0:02:00 
RULE_STEP            00:00:00

INERTIAL_DAMPING     PARTIAL
NORMAL_FLOW_LIMITED  BOTH
FORCE_MAIN_EQUATION  H-W
VARIABLE_STEP        0.75
LENGTHENING_STEP     0
MIN_SURFAREA         1.167
MAX_TRIALS           8
HEAD_TOLERANCE       0.0015
SYS_FLOW_TOL         5
LAT_FLOW_TOL         5
MINIMUM_STEP         9
THREADS              8

[EVAPORATION]
;;Data Source    Parameters
;;-------------- ----------------
CONSTANT         0.0
DRY_ONLY         NO

[RAINGAGES]
;;Name           Format    Interval SCF      Source    
;;-------------- --------- ------ ------ ----------
300_main_street  INTENSITY 24:00    1.0      TIMESERIES Daily_Intensity1
1                INTENSITY 24:00    1.0      TIMESERIES Daily_Intensity1
2                INTENSITY 24:00    1.0      TIMESERIES Daily_Intensity1
SCS   INTENSITY 0:06     1.0      TIMESERIES SCS

[SUBCATCHMENTS]
;;Name           Rain Gage        Outlet           Area     %Imperv  Width    %Slope   CurbLen  SnowPack        
;;-------------- ---------------- ---------------- -------- -------- -------- -------- -------- ----------------
ws-1             SCS                1                0.45     20.56290054 47.33753481 8.152170181 0                        
ws-2             SCS                2                0.25     19.64690018 70.05753276 9.500300407 0                        
ws-3             SCS                3                9.68     45.66759873 126.1358292 3.848929882 0                        
ws-7             SCS                7                0.24     33.36059953 49.11671914 4.340370178 0                        
ws-8             SCS                8                0.91     45.10020065 41.48427072 9.031499863 0                        
ws-9             SCS                9                0.29     45.1841011 59.90807937 11.69110012 0                        
ws-10            SCS                10               0.28     76.62149813 41.83800813 15.22560024 0                        
ws-11            SCS                11               1.49     74.29199983 44.89466681 7.861609936 0                        
ws-12            SCS                12               0.36     68.7838974 52.05618439 5.263430119 0                        
ws-13            SCS                13               3.55     68.29669953 52.37254879 10.65820026 0                        
ws-14            SCS                14               0.21     67.47579955 51.47086912 5.047709942 0                        
ws-15            SCS                15               0.21     60.54980088 46.28723076 4.542170048 0                        
ws-16            SCS                16               0.3      70.35800173 30.85317029 14.77390003 0                        
ws-17            SCS                17               70.08    53.54800035 257.0751695 2.609719992 0                        
ws-18            SCS                18               0.17     72.76719665 35.77733025 21.5182991 0                        
ws-19            SCS                19               3.96     50.45980073 89.96324681 3.263870001 0                        
ws-20            SCS                20               13.84    51.480999 163.7190165 3.490649939 0                        
ws-21            SCS                21               0.6      32.3017006 41.50079454 4.972660065 0                        
ws-22            SCS                22               20.57    58.12969973 168.1220477 2.625370026 0                        
ws-23            SCS                23               0.72     40.57630158 26.14943253 3.370300055 0                        
ws-24            SCS                24               0.17     48.34949875 33.86982874 4.276309967 0                        
ws-25            SCS                25               3.29     52.13750075 57.47053483 4.260379791 0                        
ws-26            SCS                26               10.42    50.25709915 123.4738497 3.736730099 0                        
ws-27            SCS                27               0.47     33.875   50.43844211 3.540590048 0                        
ws-28            SCS                28               1        38.35749818 68.53940096 3.508729935 0                        
ws-29            SCS                29               1.35     21.03980064 65.41138085 5.919229984 0                        
ws-30            SCS                30               1.52     34.15990068 68.3101005 2.509759903 0                        
ws-31            SCS                31               0.35     14.67529964 33.41353383 2.76560998 0                        
ws-32            SCS                32               9.96     23.59329988 210.5098299 3.392750025 0                        
ws-35            SCS                35               0.89     3.614919903 75.04086509 2.535739899 0                        
ws-37            SCS                37               0.96     60.04190065 45.31102479 2.258160114 0                        
ws-38            SCS                38               0.99     51.73690035 89.48139028 1.737490058 0                        
ws-40            SCS                40               0.19     73.99539948 35.0900617 1.741250038 0                        
ws-41            SCS                41               3.01     81.1187973 71.65650586 2.862360001 0                        
ws-42            SCS                42               2.94     69.53900145 94.26075679 3.638689995 0                        
ws-43            SCS                43_depth         0.75     54.88700105 59.72038543 4.148519993 0                        
ws-45            SCS                45               15.2     50.10639955 300.0417242 3.75661993 0                        
ws-46            SCS                46               17.26    75.1235962 92.03539494 3.586060047 0                        
ws-47            SCS                47               0.66     59.0768013 81.58763655 7.014130116 0                        
ws-48            SCS                48               0.27     80.96299745 54.18479937 6.371960163 0                        
ws-49            SCS                49               1.11     90.6814003 112.68166694 15.275650024 0                        
ws-50            SCS                50               0.63     98.4992981 32.15387253 8.595260143 0                        
ws-52            SCS                52               1.67     60.8634987 102.21374981 11.439819813 0                        
ws-53            SCS                53               7.8      74.67160035 420.72075506 9.494070053 0                        
ws-54            SCS                54               0.41     64.0837021 285.96822263 11.278150082 0                        
ws-55            SCS                55               11.6     48.94509888 137.5405896 7.446109772 0                        
ws-57            SCS                57               0.38     7.685709955 31.26565376 2.287559986 0                        
ws-58            SCS                58               2.56     31.40410043 72.34008765 3.068419933 0                        
ws-60            SCS                60               0.46     52.04130175 48.1843425 3.277889967 0                        
ws-61            SCS                61               0.78     54.39419938 43.9231954 5.364850044 0                        
ws-62            SCS                62               0.32     50.80619813 43.97693043 5.298950195 0                        
ws-63            SCS                63               3.65     62.24980165 76.39259212 6.406990051 0                        
ws-64            SCS                64               9.61     52.58620073 116.703611 4.800819874 0                        
ws-65            SCS                65               1.1      55.62450028 55.66404532 5.488949776 0                        
ws-66            SCS                66               15.06    53.15069963 784.3417502 6.144680023 0                        
ws-69            SCS                69               11.2     48.14739991 103.5629837 5.382410049 0                        
ws-70            SCS                70               1.47     54.50270083 41.79495623 5.028759956 0                        
ws-71            SCS                71               50.13    52.53020095 1704.0142183 3.592259884 0                        
ws-73            SCS                73               0.7      61.27259828 45.99042036 4.124810219 0                        
ws-74            SCS                74               2.71     11.64630032 59.25299463 1.945129991 0                        
ws-75            SCS                75               0.67     8.596229555 52.22149392 1.940490007 0                        
ws-77            SCS                77               0.23     7.455939771 34.38382111 4.070960045 0                        
ws-78            SCS                78               2.71     33.96009828 55.55481034 5.255549908 0                        
ws-79            SCS                79               0.94     31.45420075 58.46386163 2.540960073 0                        
ws-80            SCS                80               0.06     38.6875  20.47129791 4.264110088 0                        
ws-81            SCS                81               1.42     37.39500045 26.22359822 5.518889904 0                        
ws-83            SCS                83               1.45     46.12129975 28.55876693 3.546299934 0                        
ws-84            SCS                84               133.71   75.10039903 3554.7193236 12.558779955 0                        
ws-87            SCS                87               0.2      97.43240355 16.94706143 2.131249905 0                        
ws-88            SCS                88               4.15     68.93489839 73.46750561 4.950089931 0                        
ws-89            SCS                89               0.2      97.63059999 28.09600498 2.395319939 0                        
ws-90            SCS                90               0.03     97.52780153 10.13073413 1.156679988 0                        
ws-91            SCS                91               0.04     98.3042984 12.81180801 1.279680014 0                        
ws-92            SCS                92               0.12     92.01560213 18.8545756 2.68234992 0                        
ws-93            SCS                93               0.06     90.11289979 16.06755798 2.927659988 0                        
ws-94            SCS                94               1.56     90.4673996 38.0798931 3.487129927 0                        
ws-95            SCS                95               0.25     90.21939851 24.55841639 4.16546011 0                        
ws-96            SCS                96               0.07     96.60530091 21.35477533 5.01996994 0                        
ws-97            SCS                97               0.79     85.05079653 50.74016461 4.516940117 0                        
ws-98            SCS                98               0.76     79.26329805 54.12474819 6.230430126 0                        
ws-101           SCS                101              0.54     69.07260133 35.80132988 4.486269951 0                        
ws-102           SCS                102              0.48     70.86250305 44.03206655 3.915159941 0                        
ws-103           SCS                103              0.07     62.38959885 6.973547636 3.124340057 0                        
ws-105           SCS                105              0.33     71.23979951 43.58933171 1.905689955 0                        
ws-106           SCS                106              0.22     92.59590151 28.44188031 2.16685009 0                        
ws-107           SCS                107              0.25     89.90879823 37.46169067 2.492350101 0                        
ws-108           SCS                108              3.59     76.06659699 68.5443358 4.188439846 0                        
ws-112           SCS                112              0.85     62.78039933 47.69791442 6.076950073 0                        
ws-114           SCS                114              0.05     47.56600191 15.69186189 5.38736  0                        
ws-115           SCS                115              0.06     63.32310105 12.95843107 5.38736  0                        
ws-116           SCS                116              22.94    60.77389908 205.9824111 4.697770119 0                        
ws-118           SCS                118              0.04     46.09299851 12.2532558 6.517809868 0                        
ws-119           SCS                119              0.76     75.31790163 29.60821656 6.13312006 0                        
ws-120           SCS                120              0.2      63.87720108 29.38541428 5.098259926 0                        
ws-121           SCS                121              0.26     70.40969851 36.21425336 8.467530251 0                        
ws-122           SCS                122              1.06     72.31690215 40.64178636 7.067520142 0                        
ws-123           SCS                123              29.5     72.74700165 265.5927262 3.915590048 0                        
ws-124           SCS                124              0.75     44.07899859 55.02888174 4.681240082 0                        
ws-127           SCS                127              0.12     15.53439999 25.78502835 2.096179962 0                        
ws-128           SCS                128              68.3     78.51139833 266.0742296 2.597700119 0                        
ws-130           SCS                130              0.1      38.13270188 20.16844784 3.62721  0                        
ws-131           SCS                131              0.02     54       12.88026047 3.62721  0                        
ws-132           SCS                132              19.22    63.20429995 144.7016562 4.656720161 0                        
ws-136           SCS                136              7.85     38.83440019 107.9362796 4.025710106 0                        
ws-137           SCS                137              0.23     36.66540145 38.839873 3.429689884 0                        
ws-138           SCS                138              0.82     14.39690019 54.85561034 4.060309887 0                        
ws-139           SCS                139              0.28     13.44629955 62.00473213 5.593200207 0                        
ws-141           SCS                141              0.16     11.74250031 33.84860364 3.693079948 0                        
ws-142           SCS                142              0.15     13.66860008 36.3475376 6.768740177 0                        
ws-143           SCS                143              0.69     16.98959923 49.66317822 6.129350185 0                        
ws-144           SCS                144              1.89     52.95729828 33.82712125 4.630710125 0                        
ws-145           SCS                145              0.1      62.95449831 22.03637386 6.670129776 0                        
ws-146           SCS                146              0.26     30.02129935 34.46568845 3.880100012 0                        
ws-148           SCS                148              81.43    50.36780168 803.2770073 4.077040195 0                        
ws-149           SCS                149              0.03     2.685709955 7.326006434 1.377900004 0                        
ws-150           SCS                150              44.53    41.20159913 220.4891819 3.173480034 0                        
ws-154           SCS                154              0.64     40.95330048 49.59702655 2.218719959 0                        
ws-155           SCS                155              0.16     31.55809975 27.98333963 1.682690024 0                        
ws-156           SCS                156              0.52     47.210701 34.04262662 3.277209997 0                        
ws-157           SCS                157              1.57     39.2024994 55.44349973 2.643690109 0                        
ws-159           SCS                159              74.37    40.42050173 371.1704478 4.171370029 0                        
ws-161           SCS                161              195.17   45.46160125 434.3577522 2.846029997 0                        
ws-162           SCS                162              0.25     8.34043026 21.85983054 1.507910013 0                        
ws-163           SCS                163              0.4      17.94820023 28.52769853 4.136129856 0                        
ws-165           SCS                165              2.2      63.88240053 75.57752403 5.008100033 0                        
ws-166           SCS                166              0.96     90.08999635 51.04699434 3.688499928 0                        
ws-167           SCS                167              0.12     77.22299958 27.19072563 5.505690098 0                        
ws-168           SCS                168              1.74     71.28359985 49.71413274 2.803560019 0                        
ws-169           SCS                169              0.15     81.24559785 22.4692812 4.784649849 0                        
ws-170           SCS                170              0.59     71.33029938 32.73245146 3.859989882 0                        
ws-171           SCS                171              11.46    68.4701996 149.2827672 2.775130033 0                        
ws-172           SCS                172              1.54     50.65790175 54.70542426 2.821049929 0                        
ws-173           SCS                173              22.03    64.71179963 165.3506076 2.643909931 0                        
ws-174           SCS                174              0.09     79.01010133 14.50564154 2.64391  0                        

[SUBAREAS]
;;Subcatchment   N-Imperv   N-Perv     S-Imperv   S-Perv     PctZero    RouteTo    PctRouted 
;;-------------- ---------- ---------- ---------- ---------- ---------- ---------- ----------
ws-1             0.013      0.4        1.5        4          25         OUTLET    
ws-2             0.013      0.4        1.5        4          25         OUTLET    
ws-3             0.013      0.4        1.5        4          25         OUTLET    
ws-7             0.013      0.4        1.5        4          25         OUTLET    
ws-8             0.013      0.4        1.5        4          25         OUTLET    
ws-9             0.013      0.4        1.5        4          25         OUTLET    
ws-10            0.013      0.4        1.5        4          25         OUTLET    
ws-11            0.013      0.4        1.5        4          25         OUTLET    
ws-12            0.013      0.4        1.5        4          25         OUTLET    
ws-13            0.013      0.4        1.5        4          25         OUTLET    
ws-14            0.013      0.4        1.5        4          25         OUTLET    
ws-15            0.013      0.4        1.5        4          25         OUTLET    
ws-16            0.013      0.4        1.5        4          25         OUTLET    
ws-17            0.013      0.4        1.5        4          25         OUTLET    
ws-18            0.013      0.4        1.5        4          25         OUTLET    
ws-19            0.013      0.4        1.5        4          25         OUTLET    
ws-20            0.013      0.4        1.5        4          25         OUTLET    
ws-21            0.013      0.4        1.5        4          25         OUTLET    
ws-22            0.013      0.4        1.5        4          25         OUTLET    
ws-23            0.013      0.4        1.5        4          25         OUTLET    
ws-24            0.013      0.4        1.5        4          25         OUTLET    
ws-25            0.013      0.4        1.5        4          25         OUTLET    
ws-26            0.013      0.4        1.5        4          25         OUTLET    
ws-27            0.013      0.4        1.5        4          25         OUTLET    
ws-28            0.013      0.4        1.5        4          25         OUTLET    
ws-29            0.013      0.4        1.5        4          25         OUTLET    
ws-30            0.013      0.4        1.5        4          25         OUTLET    
ws-31            0.013      0.4        1.5        4          25         OUTLET    
ws-32            0.013      0.4        1.5        4          25         OUTLET    
ws-35            0.013      0.4        1.5        4          25         OUTLET    
ws-37            0.013      0.4        1.5        4          25         OUTLET    
ws-38            0.013      0.4        1.5        4          25         OUTLET    
ws-40            0.013      0.4        1.5        4          25         OUTLET    
ws-41            0.013      0.4        1.5        4          25         OUTLET    
ws-42            0.013      0.4        1.5        4          25         OUTLET    
ws-43            0.013      0.4        1.5        4          25         OUTLET    
ws-45            0.013      0.3        1.5        4          25         OUTLET    
ws-46            0.013      0.4        1.5        4          25         OUTLET    
ws-47            0.013      0.4        1.5        4          25         OUTLET    
ws-48            0.013      0.4        1.5        4          25         OUTLET    
ws-49            0.13       0.4        1.5        0          25         OUTLET    
ws-50            0.013      0.4        1.5        4          25         OUTLET    
ws-52            0.013      0.4        1.5        4          25         OUTLET    
ws-53            0.013      0.4        1.5        4          25         OUTLET    
ws-54            0.013      0.4        1.5        4          25         OUTLET    
ws-55            0.013      0.4        1.5        4          25         OUTLET    
ws-57            0.013      0.4        1.5        4          25         OUTLET    
ws-58            0.013      0.4        1.5        4          25         OUTLET    
ws-60            0.013      0.4        1.5        4          25         OUTLET    
ws-61            0.013      0.4        1.5        4          25         OUTLET    
ws-62            0.013      0.4        1.5        4          25         OUTLET    
ws-63            0.013      0.4        1.5        4          25         OUTLET    
ws-64            0.013      0.4        1.5        4          25         OUTLET    
ws-65            0.013      0.4        1.5        4          25         OUTLET    
ws-66            0.013      0.4        1.5        4          25         OUTLET    
ws-69            0.013      0.4        1.5        4          25         OUTLET    
ws-70            0.011      0.6        1.5        4          25         OUTLET    
ws-71            0.011      0.6        1.5        4          25         OUTLET    
ws-73            0.013      0.4        1.5        4          25         OUTLET    
ws-74            0.013      0.4        1.5        4          25         OUTLET    
ws-75            0.013      0.4        1.5        4          25         OUTLET    
ws-77            0.013      0.4        1.5        4          25         OUTLET    
ws-78            0.013      0.4        1.5        4          25         OUTLET    
ws-79            0.013      0.4        1.5        4          25         OUTLET    
ws-80            0.013      0.4        1.5        4          25         OUTLET    
ws-81            0.013      0.4        1.5        4          25         OUTLET    
ws-83            0.013      0.4        1.5        4          25         OUTLET    
ws-84            0.13       0.4        1.5        4          25         OUTLET    
ws-87            0.013      0.4        1.5        4          25         OUTLET    
ws-88            0.013      0.4        1.5        4          25         OUTLET    
ws-89            0.013      0.4        1.5        4          25         OUTLET    
ws-90            0.013      0.4        1.5        4          25         OUTLET    
ws-91            0.013      0.4        1.5        4          25         OUTLET    
ws-92            0.013      0.4        1.5        4          25         OUTLET    
ws-93            0.013      0.4        1.5        4          25         OUTLET    
ws-94            0.013      0.4        1.5        4          25         OUTLET    
ws-95            0.013      0.4        1.5        4          25         OUTLET    
ws-96            0.013      0.4        1.5        4          25         OUTLET    
ws-97            0.013      0.4        1.5        4          25         OUTLET    
ws-98            0.013      0.4        1.5        4          25         OUTLET    
ws-101           0.013      0.4        1.5        4          25         OUTLET    
ws-102           0.013      0.4        1.5        4          25         OUTLET    
ws-103           0.013      0.4        1.5        4          25         OUTLET    
ws-105           0.013      0.4        1.5        4          25         OUTLET    
ws-106           0.013      0.4        1.5        4          25         OUTLET    
ws-107           0.013      0.4        1.5        4          25         OUTLET    
ws-108           0.013      0.4        1.5        4          25         OUTLET    
ws-112           0.013      0.4        1.5        4          25         OUTLET    
ws-114           0.013      0.4        1.5        4          25         OUTLET    
ws-115           0.013      0.4        1.5        4          25         OUTLET    
ws-116           0.013      0.4        1.5        4          25         OUTLET    
ws-118           0.013      0.4        1.5        4          25         OUTLET    
ws-119           0.013      0.4        1.5        4          25         OUTLET    
ws-120           0.013      0.4        1.5        4          25         OUTLET    
ws-121           0.013      0.4        1.5        4          25         OUTLET    
ws-122           0.013      0.4        1.5        4          25         OUTLET    
ws-123           0.013      0.4        1.5        4          25         OUTLET    
ws-124           0.013      0.4        1.5        4          25         OUTLET    
ws-127           0.013      0.4        1.5        4          25         OUTLET    
ws-128           0.013      0.4        1.5        4          25         OUTLET    
ws-130           0.013      0.4        1.5        4          25         OUTLET    
ws-131           0.013      0.4        1.5        4          25         OUTLET    
ws-132           0.013      0.4        1.5        4          25         OUTLET    
ws-136           0.013      0.4        1.5        4          25         OUTLET    
ws-137           0.013      0.4        1.5        4          25         OUTLET    
ws-138           0.013      0.4        1.5        4          25         OUTLET    
ws-139           0.013      0.4        1.5        4          25         OUTLET    
ws-141           0.013      0.4        1.5        4          25         OUTLET    
ws-142           0.013      0.4        1.5        4          25         OUTLET    
ws-143           0.013      0.4        1.5        4          25         OUTLET    
ws-144           0.013      0.4        1.5        4          25         OUTLET    
ws-145           0.013      0.4        1.5        4          25         OUTLET    
ws-146           0.013      0.4        1.5        4          25         OUTLET    
ws-148           0.013      0.4        1.5        4          25         OUTLET    
ws-149           0.013      0.4        1.5        4          25         OUTLET    
ws-150           0.013      0.4        1.5        4          25         OUTLET    
ws-154           0.013      0.4        1.5        4          25         OUTLET    
ws-155           0.013      0.4        1.5        4          25         OUTLET    
ws-156           0.013      0.4        1.5        4          25         OUTLET    
ws-157           0.013      0.4        1.5        4          25         OUTLET    
ws-159           0.013      0.4        1.5        4          25         OUTLET    
ws-161           0.013      0.4        1.5        4          25         OUTLET    
ws-162           0.013      0.4        1.5        4          25         OUTLET    
ws-163           0.013      0.4        1.5        4          25         OUTLET    
ws-165           0.013      0.4        1.5        4          25         OUTLET    
ws-166           0.013      0.4        1.5        4          25         OUTLET    
ws-167           0.013      0.4        1.5        4          25         OUTLET    
ws-168           0.013      0.4        1.5        4          25         OUTLET    
ws-169           0.013      0.4        1.5        4          25         OUTLET    
ws-170           0.013      0.4        1.5        4          25         OUTLET    
ws-171           0.013      0.4        1.5        4          25         OUTLET    
ws-172           0.013      0.4        1.5        4          25         OUTLET    
ws-173           0.013      0.4        1.5        4          25         OUTLET    
ws-174           0.013      0.4        1.5        4          25         OUTLET    

[INFILTRATION]
;;Subcatchment   CurveNum              DryTime   
;;-------------- ---------- ---------- ----------
ws-1             82         0.43       7         
ws-2             82         0.43       7         
ws-3             74         0.43       7         
ws-7             82         0.43       7         
ws-8             82         0.43       7         